Info: SIMULATION PARAMETERS:
Info: TIMESTEP               2
Info: NUMBER OF STEPS        0
Info: STEPS PER CYCLE        10
Info: PERIODIC CELL BASIS 1  71.52 0 0
Info: PERIODIC CELL BASIS 2  0 62.652 0
Info: PERIODIC CELL BASIS 3  0 0 45.468
Info: PERIODIC CELL CENTER   0 0 0
Info: WRAPPING ALL CLUSTERS AROUND PERIODIC BOUNDARIES ON OUTPUT.
Info: FIRST LDB TIMESTEP     50
Info: LAST LDB TIMESTEP     -1
Info: HOM BACKGROUND SCALING 1
Info: PME BACKGROUND SCALING 1
Info: MIN ATOMS PER PATCH    40
Info: INITIAL TEMPERATURE    298
Info: CENTER OF MASS MOVING INITIALLY? NO
Info: DIELECTRIC             1
Info: EXCLUDE                SCALED ONE-FOUR
Info: 1-4 ELECTROSTATICS SCALED BY 1
Info: MODIFIED 1-4 VDW PARAMETERS WILL BE USED
Info: DCD FILENAME           sol.dcd
Info: DCD FREQUENCY          10000
Info: DCD FIRST STEP         10000
Info: DCD FILE WILL CONTAIN UNIT CELL DATA
Info: XST FILENAME           sol.xst
Info: XST FREQUENCY          1000
Info: NO VELOCITY DCD OUTPUT
Info: NO FORCE DCD OUTPUT
Info: OUTPUT FILENAME        sol
Info: BINARY OUTPUT FILES WILL BE USED
Info: RESTART FILENAME       sol.restart
Info: RESTART FREQUENCY      10000
Info: BINARY RESTART FILES WILL BE USED
Info: SWITCHING ACTIVE
Info: SWITCHING ON           13.5
Info: SWITCHING OFF          14
Info: PAIRLIST DISTANCE      15
Info: PAIRLIST SHRINK RATE   0.01
Info: PAIRLIST GROW RATE     0.01
Info: PAIRLIST TRIGGER       0.3
Info: PAIRLISTS PER CYCLE    2
Info: PAIRLISTS ENABLED
Info: MARGIN                 0.525
Info: HYDROGEN GROUP CUTOFF  2.5
Info: PATCH DIMENSION        18.025
Info: ENERGY OUTPUT STEPS    1000
Info: CROSSTERM ENERGY INCLUDED IN DIHEDRAL
Info: TIMING OUTPUT STEPS    10000
Info: LANGEVIN DYNAMICS ACTIVE
Info: LANGEVIN TEMPERATURE   298
Info: LANGEVIN USING BBK INTEGRATOR
Info: LANGEVIN DAMPING COEFFICIENT IS 5 INVERSE PS
Info: LANGEVIN DYNAMICS NOT APPLIED TO HYDROGENS
Info: LANGEVIN PISTON PRESSURE CONTROL ACTIVE
Info:        TARGET PRESSURE IS 1.013 BAR
Info:     OSCILLATION PERIOD IS 200 FS
Info:             DECAY TIME IS 100 FS
Info:     PISTON TEMPERATURE IS 298 K
Info:       PRESSURE CONTROL IS GROUP-BASED
Info:    INITIAL STRAIN RATE IS 0 0 0
Info:       CELL FLUCTUATION IS ISOTROPIC
Info: PARTICLE MESH EWALD (PME) ACTIVE
Info: PME TOLERANCE               1e-06
Info: PME EWALD COEFFICIENT       0.219398
Info: PME INTERPOLATION ORDER     4
Info: PME GRID DIMENSIONS         72 64 48
Info: PME MAXIMUM GRID SPACING    1
Info: FULL ELECTROSTATIC EVALUATION FREQUENCY      2
Info: USING VERLET I (r-RESPA) MTS SCHEME.
Info: C1 SPLITTING OF LONG RANGE ELECTROSTATICS
Info: PLACING ATOMS IN PATCHES BY HYDROGEN GROUPS
Info: RIGID BONDS TO HYDROGEN : ALL
Info:         ERROR TOLERANCE : 1e-08
Info:          MAX ITERATIONS : 100
Info: RIGID WATER USING SETTLE ALGORITHM
Info: RANDOM NUMBER SEED     98768674
Info: USE HYDROGEN BONDS?    NO
Info: COORDINATE PDB         my_ub7_supercell.pdb
Info: STRUCTURE FILE         my_ub7_supercell.psf
Info: PARAMETER file: CHARMM format!
Info: PARAMETERS             /home/cfa/charmm/toppar/par_all36_prot.prm
Info: PARAMETERS             /home/cfa/charmm/toppar/par_all36_carb.prm
Info: PARAMETERS             /home/cfa/charmm/toppar/par_all36_lipid.prm
Info: PARAMETERS             /home/cfa/charmm/toppar/par_all36_na.prm
Info: PARAMETERS             /home/cfa/charmm/toppar/par_all36_cgenff.prm
Info: PARAMETERS             ./ub7-hscl.str
Info: USING ARITHMETIC MEAN TO COMBINE L-J SIGMA PARAMETERS
Info: SKIPPING rtf SECTION IN STREAM FILE
Info: SUMMARY OF PARAMETERS:
Info: 1014 BONDS
Info: 3163 ANGLES
Info: 8211 DIHEDRAL
Info: 238 IMPROPER
Info: 6 CROSSTERM
Info: 345 VDW
Info: 75 VDW_PAIRS
Info: 0 NBTHOLE_PAIRS
Info: STRUCTURE SUMMARY:
Info: 20736 ATOMS
Info: 20736 BONDS
Info: 29952 ANGLES
Info: 41472 DIHEDRALS
Info: 2304 IMPROPERS
Info: 0 CROSSTERMS
Info: 0 EXCLUSIONS
Info: 6912 RIGID BONDS
Info: 55296 DEGREES OF FREEDOM
Info: 13824 HYDROGEN GROUPS
Info: 2 ATOMS IN LARGEST HYDROGEN GROUP
Info: 13824 MIGRATION GROUPS
Info: 2 ATOMS IN LARGEST MIGRATION GROUP
Info: TOTAL MASS = 191386 amu
Info: TOTAL CHARGE = -6.86646e-05 e
Info: MASS DENSITY = 1.55991 g/cm^3
Info: ATOM DENSITY = 0.101779 atoms/A^3
Info: ADDED 88704 IMPLICIT EXCLUSIONS
Info: NONBONDED TABLE R-SQUARED SPACING: 0.0625
Info: NONBONDED TABLE SIZE: 769 POINTS
Info: REMOVING COM VELOCITY -0.0871019 0.0539755 -0.0426973
TCL: Running for 2000000 steps
ETITLE: TS BOND ANGLE DIHED IMPRP ELECT VDW BOUNDARY MISC KINETIC TOTAL TEMP POTENTIAL TOTAL3 TEMPAVG PRESSURE GPRESSURE VOLUME PRESSAVG GPRESSAVG
ENERGY: 0 17581.9779 6408.1794 4814.6860 0.1414 -33834.6698 1995.4905 0.0000 0.0000 16236.7011 13202.5064 295.5252 -3034.1947 13640.6048 295.5252 55000.5756 55021.9931 203736.2444 55000.5756 55021.9931
ENERGY: 400000 6225.3195 8243.8446 8761.6633 516.8660 -33784.1808 -2488.7628 0.0000 0.0000 16340.3277 3815.0777 297.4113 -12525.2501 3984.3485 298.8937 -29.5596 -10.5321 215180.5908 -5.8182 -5.7403
ENERGY: 800000 6080.3164 8202.2784 8716.2635 533.7637 -33606.0497 -2619.9575 0.0000 0.0000 16246.2717 3552.8865 295.6994 -12693.3852 3736.6398 298.1098 -211.9416 -184.8699 215300.5960 7.5096 7.6588
ENERGY: 1200000 6202.7665 8271.0119 8824.2095 535.3042 -33809.8158 -2545.8908 0.0000 0.0000 16429.5259 3907.1115 299.0348 -12522.4144 4084.2806 298.3299 206.4341 224.4836 215132.7646 14.2825 14.2977
ENERGY: 1600000 6291.8273 8102.4848 8737.7475 533.3916 -33620.5421 -2621.9359 0.0000 0.0000 16330.7377 3753.7109 297.2367 -12577.0268 3937.9537 297.6677 -1333.7463 -1326.1635 215349.1479 -8.0621 -8.1688
ENERGY: 2000000 6191.0793 8235.8167 8897.6518 547.4731 -33803.3631 -2532.4821 0.0000 0.0000 16280.0523 3816.2281 296.3142 -12463.8242 3984.3762 297.5016 -533.7406 -519.5721 215118.1423 -15.7595 -16.0378
