Info: SIMULATION PARAMETERS:
Info: TIMESTEP               2
Info: NUMBER OF STEPS        0
Info: STEPS PER CYCLE        10
Info: PERIODIC CELL BASIS 1  71.52 0 0
Info: PERIODIC CELL BASIS 2  0 62.652 0
Info: PERIODIC CELL BASIS 3  0 0 45.468
Info: PERIODIC CELL CENTER   0 0 0
Info: WRAPPING ALL CLUSTERS AROUND PERIODIC BOUNDARIES ON OUTPUT.
Info: FIRST LDB TIMESTEP     50
Info: LAST LDB TIMESTEP     -1
Info: HOM BACKGROUND SCALING 1
Info: PME BACKGROUND SCALING 1
Info: MIN ATOMS PER PATCH    40
Info: INITIAL TEMPERATURE    298
Info: CENTER OF MASS MOVING INITIALLY? NO
Info: DIELECTRIC             1
Info: EXCLUDE                SCALED ONE-FOUR
Info: 1-4 ELECTROSTATICS SCALED BY 1
Info: MODIFIED 1-4 VDW PARAMETERS WILL BE USED
Info: DCD FILENAME           sol.dcd
Info: DCD FREQUENCY          10000
Info: DCD FIRST STEP         10000
Info: DCD FILE WILL CONTAIN UNIT CELL DATA
Info: NO EXTENDED SYSTEM TRAJECTORY OUTPUT
Info: NO VELOCITY DCD OUTPUT
Info: NO FORCE DCD OUTPUT
Info: OUTPUT FILENAME        sol
Info: BINARY OUTPUT FILES WILL BE USED
Info: RESTART FILENAME       sol.restart
Info: RESTART FREQUENCY      10000
Info: BINARY RESTART FILES WILL BE USED
Info: SWITCHING ACTIVE
Info: SWITCHING ON           13.5
Info: SWITCHING OFF          14
Info: PAIRLIST DISTANCE      15
Info: PAIRLIST SHRINK RATE   0.01
Info: PAIRLIST GROW RATE     0.01
Info: PAIRLIST TRIGGER       0.3
Info: PAIRLISTS PER CYCLE    2
Info: PAIRLISTS ENABLED
Info: MARGIN                 0.525
Info: HYDROGEN GROUP CUTOFF  2.5
Info: PATCH DIMENSION        18.025
Info: ENERGY OUTPUT STEPS    1000
Info: CROSSTERM ENERGY INCLUDED IN DIHEDRAL
Info: TIMING OUTPUT STEPS    10000
Info: LANGEVIN DYNAMICS ACTIVE
Info: LANGEVIN TEMPERATURE   298
Info: LANGEVIN USING BBK INTEGRATOR
Info: LANGEVIN DAMPING COEFFICIENT IS 5 INVERSE PS
Info: LANGEVIN DYNAMICS NOT APPLIED TO HYDROGENS
Info: LANGEVIN PISTON PRESSURE CONTROL ACTIVE
Info:        TARGET PRESSURE IS 1.013 BAR
Info:     OSCILLATION PERIOD IS 200 FS
Info:             DECAY TIME IS 100 FS
Info:     PISTON TEMPERATURE IS 298 K
Info:       PRESSURE CONTROL IS GROUP-BASED
Info:    INITIAL STRAIN RATE IS 0 0 0
Info:       CELL FLUCTUATION IS ISOTROPIC
Info: PARTICLE MESH EWALD (PME) ACTIVE
Info: PME TOLERANCE               1e-06
Info: PME EWALD COEFFICIENT       0.219398
Info: PME INTERPOLATION ORDER     4
Info: PME GRID DIMENSIONS         72 64 48
Info: PME MAXIMUM GRID SPACING    1
Info: FULL ELECTROSTATIC EVALUATION FREQUENCY      2
Info: USING VERLET I (r-RESPA) MTS SCHEME.
Info: C1 SPLITTING OF LONG RANGE ELECTROSTATICS
Info: PLACING ATOMS IN PATCHES BY HYDROGEN GROUPS
Info: RIGID BONDS TO HYDROGEN : ALL
Info:         ERROR TOLERANCE : 1e-08
Info:          MAX ITERATIONS : 100
Info: RIGID WATER USING SETTLE ALGORITHM
Info: RANDOM NUMBER SEED     98768674
Info: USE HYDROGEN BONDS?    NO
Info: COORDINATE PDB         my_ub7_supercell.pdb
Info: STRUCTURE FILE         my_ub7_supercell.psf
Info: PARAMETER file: CHARMM format!
Info: PARAMETERS             /home/cfa/charmm/toppar/par_all36_prot.prm
Info: PARAMETERS             /home/cfa/charmm/toppar/par_all36_carb.prm
Info: PARAMETERS             /home/cfa/charmm/toppar/par_all36_lipid.prm
Info: PARAMETERS             /home/cfa/charmm/toppar/par_all36_na.prm
Info: PARAMETERS             /home/cfa/charmm/toppar/par_all36_cgenff.prm
Info: PARAMETERS             ./ub7-hscl.str
Info: USING ARITHMETIC MEAN TO COMBINE L-J SIGMA PARAMETERS
Info: SKIPPING rtf SECTION IN STREAM FILE
Info: SUMMARY OF PARAMETERS:
Info: 1014 BONDS
Info: 3163 ANGLES
Info: 8211 DIHEDRAL
Info: 238 IMPROPER
Info: 6 CROSSTERM
Info: 345 VDW
Info: 75 VDW_PAIRS
Info: 0 NBTHOLE_PAIRS
Info: STRUCTURE SUMMARY:
Info: 20736 ATOMS
Info: 20736 BONDS
Info: 29952 ANGLES
Info: 41472 DIHEDRALS
Info: 2304 IMPROPERS
Info: 0 CROSSTERMS
Info: 0 EXCLUSIONS
Info: 6912 RIGID BONDS
Info: 55296 DEGREES OF FREEDOM
Info: 13824 HYDROGEN GROUPS
Info: 2 ATOMS IN LARGEST HYDROGEN GROUP
Info: 13824 MIGRATION GROUPS
Info: 2 ATOMS IN LARGEST MIGRATION GROUP
Info: TOTAL MASS = 191386 amu
Info: TOTAL CHARGE = -6.86646e-05 e
Info: MASS DENSITY = 1.55991 g/cm^3
Info: ATOM DENSITY = 0.101779 atoms/A^3
Info: ADDED 88704 IMPLICIT EXCLUSIONS
Info: NONBONDED TABLE R-SQUARED SPACING: 0.0625
Info: NONBONDED TABLE SIZE: 769 POINTS
Info: REMOVING COM VELOCITY -0.0871019 0.0539755 -0.0426973
TCL: Running for 2000000 steps
ETITLE: TS BOND ANGLE DIHED IMPRP ELECT VDW BOUNDARY MISC KINETIC TOTAL TEMP POTENTIAL TOTAL3 TEMPAVG PRESSURE GPRESSURE VOLUME PRESSAVG GPRESSAVG
ENERGY: 0 17581.9779 6408.1794 4814.6860 0.1414 -33834.6698 1995.4905 0.0000 0.0000 16236.7011 13202.5064 295.5252 -3034.1947 13640.6048 295.5252 55000.5756 55021.9931 203736.2444 55000.5756 55021.9931
ENERGY: 400000 6208.2676 8180.7095 8765.1074 534.0046 -33672.2966 -2517.4028 0.0000 0.0000 16465.3213 3963.7111 299.6863 -12501.6103 4138.7966 298.8299 383.5734 398.6220 215201.0921 -7.3307 -7.5542
ENERGY: 800000 6204.1761 8123.8855 8742.4473 528.8638 -33699.5172 -2440.0374 0.0000 0.0000 16465.8020 3925.6201 299.6950 -12540.1819 4096.0468 298.4002 378.3619 395.0676 215192.4119 6.4738 6.5567
ENERGY: 1200000 6247.6920 8198.3226 8757.9126 549.1412 -33773.1729 -2460.2781 0.0000 0.0000 16399.4375 3919.0549 298.4871 -12480.3826 4086.6905 299.0552 -511.7672 -490.5256 215219.6130 10.3246 10.8254
ENERGY: 1600000 6091.9567 8232.9089 8727.8643 519.5759 -33707.1471 -2590.9280 0.0000 0.0000 16363.7472 3637.9778 297.8375 -12725.7694 3833.1216 298.0016 -166.9289 -149.7285 215188.4393 -9.9799 -10.2100
ENERGY: 2000000 6274.4762 8174.0841 8761.6426 570.5384 -33591.1856 -2546.3364 0.0000 0.0000 16379.6948 4022.9141 298.1278 -12356.7807 4195.9112 297.4909 -282.1161 -261.4156 215356.6143 -12.9721 -13.0694
