Info: SIMULATION PARAMETERS:
Info: TIMESTEP               2
Info: NUMBER OF STEPS        0
Info: STEPS PER CYCLE        10
Info: PERIODIC CELL BASIS 1  26.82 0 0
Info: PERIODIC CELL BASIS 2  0 31.326 0
Info: PERIODIC CELL BASIS 3  0 0 22.734
Info: PERIODIC CELL CENTER   0 0 0
Info: WRAPPING ALL CLUSTERS AROUND PERIODIC BOUNDARIES ON OUTPUT.
Info: FIRST LDB TIMESTEP     50
Info: LAST LDB TIMESTEP     -1
Info: HOM BACKGROUND SCALING 1
Info: PME BACKGROUND SCALING 1
Info: MIN ATOMS PER PATCH    40
Info: INITIAL TEMPERATURE    310
Info: CENTER OF MASS MOVING INITIALLY? NO
Info: DIELECTRIC             1
Info: EXCLUDE                SCALED ONE-FOUR
Info: 1-4 ELECTROSTATICS SCALED BY 1
Info: MODIFIED 1-4 VDW PARAMETERS WILL BE USED
Info: DCD FILENAME           sol.dcd
Info: DCD FREQUENCY          10000
Info: DCD FIRST STEP         10000
Info: DCD FILE WILL CONTAIN UNIT CELL DATA
Info: NO EXTENDED SYSTEM TRAJECTORY OUTPUT
Info: NO VELOCITY DCD OUTPUT
Info: NO FORCE DCD OUTPUT
Info: OUTPUT FILENAME        sol
Info: BINARY OUTPUT FILES WILL BE USED
Info: RESTART FILENAME       sol.restart
Info: RESTART FREQUENCY      10000
Info: BINARY RESTART FILES WILL BE USED
Info: SWITCHING ACTIVE
Info: SWITCHING ON           9
Info: SWITCHING OFF          10
Info: PAIRLIST DISTANCE      11.5
Info: PAIRLIST SHRINK RATE   0.01
Info: PAIRLIST GROW RATE     0.01
Info: PAIRLIST TRIGGER       0.3
Info: PAIRLISTS PER CYCLE    2
Info: PAIRLISTS ENABLED
Info: MARGIN                 0.42
Info: HYDROGEN GROUP CUTOFF  2.5
Info: PATCH DIMENSION        14.42
Info: ENERGY OUTPUT STEPS    1000
Info: CROSSTERM ENERGY INCLUDED IN DIHEDRAL
Info: TIMING OUTPUT STEPS    10000
Info: LANGEVIN DYNAMICS ACTIVE
Info: LANGEVIN TEMPERATURE   310
Info: LANGEVIN USING BBK INTEGRATOR
Info: LANGEVIN DAMPING COEFFICIENT IS 5 INVERSE PS
Info: LANGEVIN DYNAMICS NOT APPLIED TO HYDROGENS
Info: LANGEVIN PISTON PRESSURE CONTROL ACTIVE
Info:        TARGET PRESSURE IS 1.013 BAR
Info:     OSCILLATION PERIOD IS 200 FS
Info:             DECAY TIME IS 100 FS
Info:     PISTON TEMPERATURE IS 310 K
Info:       PRESSURE CONTROL IS GROUP-BASED
Info:    INITIAL STRAIN RATE IS 0 0 0
Info:       CELL FLUCTUATION IS ISOTROPIC
Info: PARTICLE MESH EWALD (PME) ACTIVE
Info: PME TOLERANCE               1e-06
Info: PME EWALD COEFFICIENT       0.312341
Info: PME INTERPOLATION ORDER     4
Info: PME GRID DIMENSIONS         28 32 24
Info: PME MAXIMUM GRID SPACING    1
Info: FULL ELECTROSTATIC EVALUATION FREQUENCY      2
Info: USING VERLET I (r-RESPA) MTS SCHEME.
Info: C1 SPLITTING OF LONG RANGE ELECTROSTATICS
Info: PLACING ATOMS IN PATCHES BY HYDROGEN GROUPS
Info: RIGID BONDS TO HYDROGEN : ALL
Info:         ERROR TOLERANCE : 1e-08
Info:          MAX ITERATIONS : 100
Info: RIGID WATER USING SETTLE ALGORITHM
Info: RANDOM NUMBER SEED     98768674
Info: USE HYDROGEN BONDS?    NO
Info: COORDINATE PDB         my_ub7_supercell.pdb
Info: STRUCTURE FILE         my_ub7_supercell.psf
Info: PARAMETER file: CHARMM format!
Info: PARAMETERS             /home/cfa/charmm/toppar/par_all36_prot.prm
Info: PARAMETERS             /home/cfa/charmm/toppar/par_all36_carb.prm
Info: PARAMETERS             /home/cfa/charmm/toppar/par_all36_lipid.prm
Info: PARAMETERS             /home/cfa/charmm/toppar/par_all36_na.prm
Info: PARAMETERS             /home/cfa/charmm/toppar/par_all36_cgenff.prm
Info: USING ARITHMETIC MEAN TO COMBINE L-J SIGMA PARAMETERS
Info: SUMMARY OF PARAMETERS:
Info: 1014 BONDS
Info: 3163 ANGLES
Info: 8211 DIHEDRAL
Info: 238 IMPROPER
Info: 6 CROSSTERM
Info: 344 VDW
Info: 75 VDW_PAIRS
Info: 0 NBTHOLE_PAIRS
Info: STRUCTURE SUMMARY:
Info: 1944 ATOMS
Info: 1944 BONDS
Info: 2808 ANGLES
Info: 3888 DIHEDRALS
Info: 216 IMPROPERS
Info: 0 CROSSTERMS
Info: 0 EXCLUSIONS
Info: 648 RIGID BONDS
Info: 5184 DEGREES OF FREEDOM
Info: 1296 HYDROGEN GROUPS
Info: 2 ATOMS IN LARGEST HYDROGEN GROUP
Info: 1296 MIGRATION GROUPS
Info: 2 ATOMS IN LARGEST MIGRATION GROUP
Info: TOTAL MASS = 17942.4 amu
Info: TOTAL CHARGE = -6.4373e-06 e
Info: MASS DENSITY = 1.55991 g/cm^3
Info: ATOM DENSITY = 0.101779 atoms/A^3
Info: ADDED 8316 IMPLICIT EXCLUSIONS
Info: NONBONDED TABLE R-SQUARED SPACING: 0.0625
Info: NONBONDED TABLE SIZE: 705 POINTS
Info: REMOVING COM VELOCITY 0.0328371 0.16117 -0.125571
TCL: Running for 2000000 steps
ETITLE: TS BOND ANGLE DIHED IMPRP ELECT VDW BOUNDARY MISC KINETIC TOTAL TEMP POTENTIAL TOTAL3 TEMPAVG PRESSURE GPRESSURE VOLUME PRESSAVG GPRESSAVG
ENERGY: 0 1648.3104 600.7668 451.3768 0.0133 -3171.7817 272.9489 0.0000 0.0000 1641.8975 1443.5320 318.7656 -198.3655 1484.8055 318.7656 55734.7477 55623.5332 19100.2729 55734.7477 55623.5332
ENERGY: 400000 592.7340 825.7522 838.0040 54.2454 -3165.3851 -149.4793 0.0000 0.0000 1565.6518 561.5231 303.9629 -1004.1288 576.3505 306.3631 2698.0218 2659.3958 20215.1394 -25.2946 -26.6523
ENERGY: 800000 633.8143 781.7672 857.5318 56.3754 -3173.2161 -150.1749 0.0000 0.0000 1533.8568 539.9545 297.7901 -993.9023 555.7036 308.8196 -1816.1152 -1902.2971 20172.6711 28.1799 28.1534
ENERGY: 1200000 593.1881 772.3698 859.2322 56.0289 -3137.5589 -160.3803 0.0000 0.0000 1592.9286 575.8085 309.2585 -1017.1201 596.4566 310.3210 -1406.2878 -1435.3691 20281.7212 -3.3976 -3.8464
ENERGY: 1600000 593.1926 788.1951 872.9784 46.1739 -3162.2948 -175.6470 0.0000 0.0000 1586.9528 549.5510 308.0984 -1037.4018 566.2588 308.9124 -1928.4444 -1984.5336 20226.1751 -22.4774 -22.9202
ENERGY: 2000000 615.9951 799.7156 829.3821 46.9554 -3177.4182 -144.8400 0.0000 0.0000 1619.1162 588.9062 314.3427 -1030.2100 608.5291 310.4743 911.0813 833.9549 20177.9805 49.8600 49.6756
