Info: SIMULATION PARAMETERS:
Info: TIMESTEP               2
Info: NUMBER OF STEPS        0
Info: STEPS PER CYCLE        10
Info: PERIODIC CELL BASIS 1  71.52 0 0
Info: PERIODIC CELL BASIS 2  0 62.652 0
Info: PERIODIC CELL BASIS 3  0 0 45.468
Info: PERIODIC CELL CENTER   0 0 0
Info: WRAPPING ALL CLUSTERS AROUND PERIODIC BOUNDARIES ON OUTPUT.
Info: FIRST LDB TIMESTEP     50
Info: LAST LDB TIMESTEP     -1
Info: HOM BACKGROUND SCALING 1
Info: PME BACKGROUND SCALING 1
Info: MIN ATOMS PER PATCH    40
Info: INITIAL TEMPERATURE    310
Info: CENTER OF MASS MOVING INITIALLY? NO
Info: DIELECTRIC             1
Info: EXCLUDE                SCALED ONE-FOUR
Info: 1-4 ELECTROSTATICS SCALED BY 1
Info: MODIFIED 1-4 VDW PARAMETERS WILL BE USED
Info: DCD FILENAME           sol.dcd
Info: DCD FREQUENCY          10000
Info: DCD FIRST STEP         10000
Info: DCD FILE WILL CONTAIN UNIT CELL DATA
Info: NO EXTENDED SYSTEM TRAJECTORY OUTPUT
Info: NO VELOCITY DCD OUTPUT
Info: NO FORCE DCD OUTPUT
Info: OUTPUT FILENAME        sol
Info: BINARY OUTPUT FILES WILL BE USED
Info: RESTART FILENAME       sol.restart
Info: RESTART FREQUENCY      10000
Info: BINARY RESTART FILES WILL BE USED
Info: SWITCHING ACTIVE
Info: SWITCHING ON           9
Info: SWITCHING OFF          10
Info: PAIRLIST DISTANCE      11.5
Info: PAIRLIST SHRINK RATE   0.01
Info: PAIRLIST GROW RATE     0.01
Info: PAIRLIST TRIGGER       0.3
Info: PAIRLISTS PER CYCLE    2
Info: PAIRLISTS ENABLED
Info: MARGIN                 0.42
Info: HYDROGEN GROUP CUTOFF  2.5
Info: PATCH DIMENSION        14.42
Info: ENERGY OUTPUT STEPS    1000
Info: CROSSTERM ENERGY INCLUDED IN DIHEDRAL
Info: TIMING OUTPUT STEPS    10000
Info: LANGEVIN DYNAMICS ACTIVE
Info: LANGEVIN TEMPERATURE   310
Info: LANGEVIN USING BBK INTEGRATOR
Info: LANGEVIN DAMPING COEFFICIENT IS 5 INVERSE PS
Info: LANGEVIN DYNAMICS NOT APPLIED TO HYDROGENS
Info: LANGEVIN PISTON PRESSURE CONTROL ACTIVE
Info:        TARGET PRESSURE IS 1.013 BAR
Info:     OSCILLATION PERIOD IS 200 FS
Info:             DECAY TIME IS 100 FS
Info:     PISTON TEMPERATURE IS 310 K
Info:       PRESSURE CONTROL IS GROUP-BASED
Info:    INITIAL STRAIN RATE IS 0 0 0
Info:       CELL FLUCTUATION IS ISOTROPIC
Info: PARTICLE MESH EWALD (PME) ACTIVE
Info: PME TOLERANCE               1e-06
Info: PME EWALD COEFFICIENT       0.312341
Info: PME INTERPOLATION ORDER     4
Info: PME GRID DIMENSIONS         72 64 48
Info: PME MAXIMUM GRID SPACING    1
Info: FULL ELECTROSTATIC EVALUATION FREQUENCY      2
Info: USING VERLET I (r-RESPA) MTS SCHEME.
Info: C1 SPLITTING OF LONG RANGE ELECTROSTATICS
Info: PLACING ATOMS IN PATCHES BY HYDROGEN GROUPS
Info: RIGID BONDS TO HYDROGEN : ALL
Info:         ERROR TOLERANCE : 1e-08
Info:          MAX ITERATIONS : 100
Info: RIGID WATER USING SETTLE ALGORITHM
Info: RANDOM NUMBER SEED     98768674
Info: USE HYDROGEN BONDS?    NO
Info: COORDINATE PDB         my_ub7_supercell.pdb
Info: STRUCTURE FILE         my_ub7_supercell.psf
Info: PARAMETER file: CHARMM format!
Info: PARAMETERS             /home/cfa/charmm/toppar/par_all36_prot.prm
Info: PARAMETERS             /home/cfa/charmm/toppar/par_all36_carb.prm
Info: PARAMETERS             /home/cfa/charmm/toppar/par_all36_lipid.prm
Info: PARAMETERS             /home/cfa/charmm/toppar/par_all36_na.prm
Info: PARAMETERS             /home/cfa/charmm/toppar/par_all36_cgenff.prm
Info: USING ARITHMETIC MEAN TO COMBINE L-J SIGMA PARAMETERS
Info: SUMMARY OF PARAMETERS:
Info: 1014 BONDS
Info: 3163 ANGLES
Info: 8211 DIHEDRAL
Info: 238 IMPROPER
Info: 6 CROSSTERM
Info: 344 VDW
Info: 75 VDW_PAIRS
Info: 0 NBTHOLE_PAIRS
Info: STRUCTURE SUMMARY:
Info: 20736 ATOMS
Info: 20736 BONDS
Info: 29952 ANGLES
Info: 41472 DIHEDRALS
Info: 2304 IMPROPERS
Info: 0 CROSSTERMS
Info: 0 EXCLUSIONS
Info: 6912 RIGID BONDS
Info: 55296 DEGREES OF FREEDOM
Info: 13824 HYDROGEN GROUPS
Info: 2 ATOMS IN LARGEST HYDROGEN GROUP
Info: 13824 MIGRATION GROUPS
Info: 2 ATOMS IN LARGEST MIGRATION GROUP
Info: TOTAL MASS = 191386 amu
Info: TOTAL CHARGE = -6.86646e-05 e
Info: MASS DENSITY = 1.55991 g/cm^3
Info: ATOM DENSITY = 0.101779 atoms/A^3
Info: ADDED 88704 IMPLICIT EXCLUSIONS
Info: NONBONDED TABLE R-SQUARED SPACING: 0.0625
Info: NONBONDED TABLE SIZE: 705 POINTS
Info: REMOVING COM VELOCITY -0.0888383 0.0550515 -0.0435485
TCL: Running for 2000000 steps
ETITLE: TS BOND ANGLE DIHED IMPRP ELECT VDW BOUNDARY MISC KINETIC TOTAL TEMP POTENTIAL TOTAL3 TEMPAVG PRESSURE GPRESSURE VOLUME PRESSAVG GPRESSAVG
ENERGY: 0 17581.9779 6408.1794 4814.6860 0.1414 -33832.3352 2911.4554 0.0000 0.0000 16890.5338 14774.6385 307.4256 -2115.8953 15214.8016 307.4256 55626.3463 55515.1482 203736.2444 55626.3463 55515.1482
ENERGY: 400000 6264.3635 8364.6916 8992.2869 575.5975 -33557.3292 -1592.6938 0.0000 0.0000 17016.2551 6063.1716 309.7139 -10953.0835 6234.7396 311.0796 326.3407 251.7849 215295.9179 -0.2825 -0.0935
ENERGY: 800000 6347.5916 8383.1373 8950.0692 595.0549 -33488.5510 -1681.4686 0.0000 0.0000 17031.2123 6137.0457 309.9861 -10894.1666 6327.9093 309.8189 -442.0057 -518.6989 215735.5304 12.5335 12.4374
ENERGY: 1200000 6307.4675 8423.3057 8932.3372 562.1720 -33657.9089 -1701.6183 0.0000 0.0000 17149.6104 6015.3656 312.1411 -11134.2448 6207.4056 311.3974 359.4349 281.3955 215693.7078 5.1303 5.3386
ENERGY: 1600000 6296.1616 8373.8699 8988.2010 599.0626 -33510.1505 -1612.1894 0.0000 0.0000 17067.9418 6202.8971 310.6546 -10865.0447 6380.4896 309.4919 580.6774 501.8712 215769.9717 0.3766 0.0827
ENERGY: 2000000 6222.6908 8423.9515 8909.6550 550.3685 -33489.7317 -1671.1165 0.0000 0.0000 16745.6391 5691.4567 304.7884 -11054.1824 5861.5996 309.8462 265.8950 204.9421 215723.6612 11.7985 11.9713
