Info: SIMULATION PARAMETERS:
Info: TIMESTEP               2
Info: NUMBER OF STEPS        0
Info: STEPS PER CYCLE        10
Info: PERIODIC CELL BASIS 1  71.52 0 0
Info: PERIODIC CELL BASIS 2  0 62.652 0
Info: PERIODIC CELL BASIS 3  0 0 45.468
Info: PERIODIC CELL CENTER   0 0 0
Info: WRAPPING ALL CLUSTERS AROUND PERIODIC BOUNDARIES ON OUTPUT.
Info: FIRST LDB TIMESTEP     50
Info: LAST LDB TIMESTEP     -1
Info: HOM BACKGROUND SCALING 1
Info: PME BACKGROUND SCALING 1
Info: MIN ATOMS PER PATCH    40
Info: INITIAL TEMPERATURE    310
Info: CENTER OF MASS MOVING INITIALLY? NO
Info: DIELECTRIC             1
Info: EXCLUDE                SCALED ONE-FOUR
Info: 1-4 ELECTROSTATICS SCALED BY 1
Info: MODIFIED 1-4 VDW PARAMETERS WILL BE USED
Info: DCD FILENAME           sol.dcd
Info: DCD FREQUENCY          10000
Info: DCD FIRST STEP         10000
Info: DCD FILE WILL CONTAIN UNIT CELL DATA
Info: NO EXTENDED SYSTEM TRAJECTORY OUTPUT
Info: NO VELOCITY DCD OUTPUT
Info: NO FORCE DCD OUTPUT
Info: OUTPUT FILENAME        sol
Info: BINARY OUTPUT FILES WILL BE USED
Info: RESTART FILENAME       sol.restart
Info: RESTART FREQUENCY      10000
Info: BINARY RESTART FILES WILL BE USED
Info: SWITCHING ACTIVE
Info: SWITCHING ON           11.5
Info: SWITCHING OFF          12
Info: PAIRLIST DISTANCE      13
Info: PAIRLIST SHRINK RATE   0.01
Info: PAIRLIST GROW RATE     0.01
Info: PAIRLIST TRIGGER       0.3
Info: PAIRLISTS PER CYCLE    2
Info: PAIRLISTS ENABLED
Info: MARGIN                 0.465
Info: HYDROGEN GROUP CUTOFF  2.5
Info: PATCH DIMENSION        15.965
Info: ENERGY OUTPUT STEPS    1000
Info: CROSSTERM ENERGY INCLUDED IN DIHEDRAL
Info: TIMING OUTPUT STEPS    10000
Info: LANGEVIN DYNAMICS ACTIVE
Info: LANGEVIN TEMPERATURE   310
Info: LANGEVIN USING BBK INTEGRATOR
Info: LANGEVIN DAMPING COEFFICIENT IS 5 INVERSE PS
Info: LANGEVIN DYNAMICS NOT APPLIED TO HYDROGENS
Info: LANGEVIN PISTON PRESSURE CONTROL ACTIVE
Info:        TARGET PRESSURE IS 1.013 BAR
Info:     OSCILLATION PERIOD IS 200 FS
Info:             DECAY TIME IS 100 FS
Info:     PISTON TEMPERATURE IS 310 K
Info:       PRESSURE CONTROL IS GROUP-BASED
Info:    INITIAL STRAIN RATE IS 0 0 0
Info:       CELL FLUCTUATION IS ISOTROPIC
Info: PARTICLE MESH EWALD (PME) ACTIVE
Info: PME TOLERANCE               1e-06
Info: PME EWALD COEFFICIENT       0.257952
Info: PME INTERPOLATION ORDER     4
Info: PME GRID DIMENSIONS         72 64 48
Info: PME MAXIMUM GRID SPACING    1
Info: FULL ELECTROSTATIC EVALUATION FREQUENCY      2
Info: USING VERLET I (r-RESPA) MTS SCHEME.
Info: C1 SPLITTING OF LONG RANGE ELECTROSTATICS
Info: PLACING ATOMS IN PATCHES BY HYDROGEN GROUPS
Info: RIGID BONDS TO HYDROGEN : ALL
Info:         ERROR TOLERANCE : 1e-08
Info:          MAX ITERATIONS : 100
Info: RIGID WATER USING SETTLE ALGORITHM
Info: RANDOM NUMBER SEED     98768674
Info: USE HYDROGEN BONDS?    NO
Info: COORDINATE PDB         my_ub7_supercell.pdb
Info: STRUCTURE FILE         my_ub7_supercell.psf
Info: PARAMETER file: CHARMM format!
Info: PARAMETERS             /home/cfa/charmm/toppar/par_all36_prot.prm
Info: PARAMETERS             /home/cfa/charmm/toppar/par_all36_carb.prm
Info: PARAMETERS             /home/cfa/charmm/toppar/par_all36_lipid.prm
Info: PARAMETERS             /home/cfa/charmm/toppar/par_all36_na.prm
Info: PARAMETERS             /home/cfa/charmm/toppar/par_all36_cgenff.prm
Info: USING ARITHMETIC MEAN TO COMBINE L-J SIGMA PARAMETERS
Info: SUMMARY OF PARAMETERS:
Info: 1014 BONDS
Info: 3163 ANGLES
Info: 8211 DIHEDRAL
Info: 238 IMPROPER
Info: 6 CROSSTERM
Info: 344 VDW
Info: 75 VDW_PAIRS
Info: 0 NBTHOLE_PAIRS
Info: STRUCTURE SUMMARY:
Info: 20736 ATOMS
Info: 20736 BONDS
Info: 29952 ANGLES
Info: 41472 DIHEDRALS
Info: 2304 IMPROPERS
Info: 0 CROSSTERMS
Info: 0 EXCLUSIONS
Info: 6912 RIGID BONDS
Info: 55296 DEGREES OF FREEDOM
Info: 13824 HYDROGEN GROUPS
Info: 2 ATOMS IN LARGEST HYDROGEN GROUP
Info: 13824 MIGRATION GROUPS
Info: 2 ATOMS IN LARGEST MIGRATION GROUP
Info: TOTAL MASS = 191386 amu
Info: TOTAL CHARGE = -6.86646e-05 e
Info: MASS DENSITY = 1.55991 g/cm^3
Info: ATOM DENSITY = 0.101779 atoms/A^3
Info: ADDED 88704 IMPLICIT EXCLUSIONS
Info: NONBONDED TABLE R-SQUARED SPACING: 0.0625
Info: NONBONDED TABLE SIZE: 769 POINTS
Info: REMOVING COM VELOCITY -0.0888383 0.0550515 -0.0435485
TCL: Running for 2000000 steps
ETITLE: TS BOND ANGLE DIHED IMPRP ELECT VDW BOUNDARY MISC KINETIC TOTAL TEMP POTENTIAL TOTAL3 TEMPAVG PRESSURE GPRESSURE VOLUME PRESSAVG GPRESSAVG
ENERGY: 0 17581.9779 6408.1794 4814.6860 0.1414 -33831.7681 2250.4667 0.0000 0.0000 16890.5305 14114.2136 307.4255 -2776.3168 14553.0654 307.4255 55214.4504 55234.6334 203736.2444 55214.4504 55234.6334
ENERGY: 400000 6339.6465 8355.2818 8902.0030 570.5658 -33504.7866 -2178.8976 0.0000 0.0000 17111.5554 5595.3682 311.4484 -11516.1872 5782.8223 309.6445 367.1992 407.6541 215415.4960 -7.0092 -7.2397
ENERGY: 800000 6292.2457 8462.3449 9002.5568 558.4527 -33589.4730 -2236.4706 0.0000 0.0000 17118.8739 5608.5304 311.5816 -11510.3435 5781.3008 310.2731 -159.2700 -133.6275 215375.8032 15.4062 15.4176
ENERGY: 1200000 6192.0439 8420.8358 8870.3483 545.8307 -33653.8159 -2181.3625 0.0000 0.0000 16961.1715 5155.0518 308.7113 -11806.1197 5345.4341 309.5250 655.8078 687.2353 215499.2551 -4.7146 -4.6431
ENERGY: 1600000 6215.5978 8264.4937 8981.3659 583.2511 -33416.6961 -2269.2386 0.0000 0.0000 17102.0403 5460.8142 311.2753 -11641.2261 5652.3970 308.8194 -10.4286 25.0699 215489.6392 -0.0570 -0.1437
ENERGY: 2000000 6386.7939 8341.0618 8923.4928 574.2545 -33608.2174 -2285.2655 0.0000 0.0000 17059.5769 5391.6970 310.5024 -11667.8799 5582.7050 309.4614 138.2033 180.6998 215469.4359 9.7842 9.7206
